data_image0
_chemical_formula_structural       H80O32C88Zn8N8
_chemical_formula_sum              "H80 O32 C88 Zn8 N8"
_cell_length_a       15.6578
_cell_length_b       19.3544
_cell_length_c       15.6578
_cell_angle_alpha    90
_cell_angle_beta     90.0082
_cell_angle_gamma    90

_space_group_name_H-M_alt    "P 1"
_space_group_IT_number       1

loop_
  _space_group_symop_operation_xyz
  'x, y, z'

loop_
  _atom_site_type_symbol
  _atom_site_label
  _atom_site_symmetry_multiplicity
  _atom_site_fract_x
  _atom_site_fract_y
  _atom_site_fract_z
  _atom_site_occupancy
  H   H1        1.0  0.55597  0.12908  0.05817  1.0000
  H   H2        1.0  0.55573  0.35071  0.05835  1.0000
  H   H3        1.0  0.55597  0.85502  0.05817  1.0000
  H   H4        1.0  0.55573  0.63339  0.05835  1.0000
  H   H5        1.0  0.37262  0.05345  0.80250  1.0000
  H   H6        1.0  0.88461  0.05333  0.26618  1.0000
  H   H7        1.0  0.36961  0.05344  0.68951  1.0000
  H   H8        1.0  0.82558  0.05324  0.36247  1.0000
  H   H9        1.0  0.44256  0.12908  0.94477  1.0000
  H   H10       1.0  0.44238  0.35071  0.94500  1.0000
  H   H11       1.0  0.14234  0.05323  0.82901  1.0000
  H   H12       1.0  0.24161  0.05335  0.88290  1.0000
  H   H13       1.0  0.05890  0.85246  0.94421  1.0000
  H   H14       1.0  0.05775  0.63083  0.94548  1.0000
  H   H15       1.0  0.12824  0.55345  0.69810  1.0000
  H   H16       1.0  0.36260  0.43087  0.82545  1.0000
  H   H17       1.0  0.82914  0.55324  0.14221  1.0000
  H   H18       1.0  0.13126  0.55344  0.81109  1.0000
  H   H19       1.0  0.26631  0.43077  0.88448  1.0000
  H   H20       1.0  0.88303  0.55335  0.24148  1.0000
  H   H21       1.0  0.05830  0.62908  0.55583  1.0000
  H   H22       1.0  0.05849  0.85071  0.55560  1.0000
  H   H23       1.0  0.13126  0.43066  0.81109  1.0000
  H   H24       1.0  0.35852  0.55324  0.67160  1.0000
  H   H25       1.0  0.68964  0.43066  0.36948  1.0000
  H   H26       1.0  0.12824  0.43066  0.69810  1.0000
  H   H27       1.0  0.25925  0.55335  0.61770  1.0000
  H   H28       1.0  0.80263  0.43066  0.37249  1.0000
  H   H29       1.0  0.44197  0.35246  0.55639  1.0000
  H   H30       1.0  0.55525  0.35327  0.44298  1.0000
  H   H31       1.0  0.44311  0.13083  0.55512  1.0000
  H   H32       1.0  0.55652  0.13164  0.44184  1.0000
  H   H33       1.0  0.67173  0.05323  0.35839  1.0000
  H   H34       1.0  0.61783  0.05335  0.25912  1.0000
  H   H35       1.0  0.44256  0.85502  0.94477  1.0000
  H   H36       1.0  0.44238  0.63339  0.94500  1.0000
  H   H37       1.0  0.69823  0.05345  0.12811  1.0000
  H   H38       1.0  0.23455  0.05333  0.61612  1.0000
  H   H39       1.0  0.81122  0.05344  0.13112  1.0000
  H   H40       1.0  0.13826  0.05324  0.67515  1.0000
  H   H41       1.0  0.05890  0.13164  0.94421  1.0000
  H   H42       1.0  0.05775  0.35327  0.94548  1.0000
  H   H43       1.0  0.67528  0.43087  0.13813  1.0000
  H   H44       1.0  0.80263  0.55345  0.37249  1.0000
  H   H45       1.0  0.25925  0.43076  0.61770  1.0000
  H   H46       1.0  0.61625  0.43077  0.23442  1.0000
  H   H47       1.0  0.68964  0.55344  0.36948  1.0000
  H   H48       1.0  0.35852  0.43087  0.67160  1.0000
  H   H49       1.0  0.05830  0.35502  0.55583  1.0000
  H   H50       1.0  0.05849  0.13339  0.55560  1.0000
  H   H51       1.0  0.61625  0.55333  0.23442  1.0000
  H   H52       1.0  0.88303  0.43076  0.24148  1.0000
  H   H53       1.0  0.26631  0.55333  0.88448  1.0000
  H   H54       1.0  0.67528  0.55324  0.13813  1.0000
  H   H55       1.0  0.82914  0.43087  0.14221  1.0000
  H   H56       1.0  0.36260  0.55324  0.82545  1.0000
  H   H57       1.0  0.55525  0.63083  0.44298  1.0000
  H   H58       1.0  0.44197  0.63164  0.55639  1.0000
  H   H59       1.0  0.55652  0.85246  0.44184  1.0000
  H   H60       1.0  0.44311  0.85327  0.55512  1.0000
  H   H61       1.0  0.13826  0.93087  0.67515  1.0000
  H   H62       1.0  0.23455  0.93077  0.61612  1.0000
  H   H63       1.0  0.36961  0.93066  0.68951  1.0000
  H   H64       1.0  0.61783  0.93076  0.25912  1.0000
  H   H65       1.0  0.37262  0.93066  0.80250  1.0000
  H   H66       1.0  0.67173  0.93087  0.35839  1.0000
  H   H67       1.0  0.81122  0.93066  0.13112  1.0000
  H   H68       1.0  0.24161  0.93076  0.88290  1.0000
  H   H69       1.0  0.69823  0.93066  0.12811  1.0000
  H   H70       1.0  0.14234  0.93087  0.82901  1.0000
  H   H71       1.0  0.82558  0.93087  0.36247  1.0000
  H   H72       1.0  0.88461  0.93077  0.26618  1.0000
  H   H73       1.0  0.94561  0.85327  0.05762  1.0000
  H   H74       1.0  0.94434  0.63164  0.05876  1.0000
  H   H75       1.0  0.94561  0.13083  0.05762  1.0000
  H   H76       1.0  0.94434  0.35246  0.05876  1.0000
  H   H77       1.0  0.94490  0.62908  0.44243  1.0000
  H   H78       1.0  0.94513  0.85071  0.44225  1.0000
  H   H79       1.0  0.94490  0.35502  0.44243  1.0000
  H   H80       1.0  0.94513  0.13339  0.44225  1.0000
  O   O1        1.0  0.65781  0.29846  0.15770  1.0000
  O   O2        1.0  0.65753  0.80291  0.15841  1.0000
  O   O3        1.0  0.65781  0.68564  0.15770  1.0000
  O   O4        1.0  0.65753  0.18119  0.15841  1.0000
  O   O5        1.0  0.65860  0.79943  0.34300  1.0000
  O   O6        1.0  0.15854  0.30291  0.65739  1.0000
  O   O7        1.0  0.34313  0.68468  0.65847  1.0000
  O   O8        1.0  0.65681  0.68217  0.34224  1.0000
  O   O9        1.0  0.34232  0.80291  0.84321  1.0000
  O   O10       1.0  0.15773  0.18468  0.84213  1.0000
  O   O11       1.0  0.65860  0.18468  0.34300  1.0000
  O   O12       1.0  0.34237  0.18217  0.65668  1.0000
  O   O13       1.0  0.15773  0.79943  0.84213  1.0000
  O   O14       1.0  0.34303  0.68564  0.84292  1.0000
  O   O15       1.0  0.15783  0.79846  0.65768  1.0000
  O   O16       1.0  0.34232  0.18119  0.84321  1.0000
  O   O17       1.0  0.65681  0.30193  0.34224  1.0000
  O   O18       1.0  0.15849  0.30193  0.84392  1.0000
  O   O19       1.0  0.15849  0.68217  0.84392  1.0000
  O   O20       1.0  0.34313  0.29943  0.65847  1.0000
  O   O21       1.0  0.15783  0.18564  0.65768  1.0000
  O   O22       1.0  0.34303  0.29846  0.84292  1.0000
  O   O23       1.0  0.15854  0.68119  0.65739  1.0000
  O   O24       1.0  0.34237  0.80193  0.65668  1.0000
  O   O25       1.0  0.84405  0.18217  0.15836  1.0000
  O   O26       1.0  0.84305  0.18564  0.34290  1.0000
  O   O27       1.0  0.84226  0.68468  0.15760  1.0000
  O   O28       1.0  0.84226  0.29943  0.15760  1.0000
  O   O29       1.0  0.84305  0.79846  0.34290  1.0000
  O   O30       1.0  0.84334  0.30291  0.34219  1.0000
  O   O31       1.0  0.84334  0.68119  0.34219  1.0000
  O   O32       1.0  0.84405  0.80193  0.15836  1.0000
  C   C1        1.0  0.53058  0.68170  0.03297  1.0000
  C   C2        1.0  0.63121  0.74430  0.13209  1.0000
  C   C3        1.0  0.56285  0.74425  0.06479  1.0000
  C   C4        1.0  0.53069  0.80675  0.03286  1.0000
  C   C5        1.0  0.63121  0.23980  0.13209  1.0000
  C   C6        1.0  0.56285  0.23986  0.06479  1.0000
  C   C7        1.0  0.53058  0.30240  0.03297  1.0000
  C   C8        1.0  0.53069  0.17736  0.03286  1.0000
  C   C9        1.0  0.13215  0.24312  0.86948  1.0000
  C   C10       1.0  0.63125  0.74099  0.36859  1.0000
  C   C11       1.0  0.06485  0.24255  0.93783  1.0000
  C   C12       1.0  0.56290  0.74156  0.43588  1.0000
  C   C13       1.0  0.03264  0.30480  0.97042  1.0000
  C   C14       1.0  0.46753  0.67977  0.53094  1.0000
  C   C15       1.0  0.53031  0.67930  0.46810  1.0000
  C   C16       1.0  0.33921  0.03207  0.74685  1.0000
  C   C17       1.0  0.82769  0.03205  0.29753  1.0000
  C   C18       1.0  0.36864  0.74430  0.86952  1.0000
  C   C19       1.0  0.43594  0.74425  0.93789  1.0000
  C   C20       1.0  0.46776  0.68170  0.97015  1.0000
  C   C21       1.0  0.03299  0.30675  0.53056  1.0000
  C   C22       1.0  0.20729  0.03204  0.82774  1.0000
  C   C23       1.0  0.36872  0.74312  0.63112  1.0000
  C   C24       1.0  0.43601  0.74255  0.56277  1.0000
  C   C25       1.0  0.46823  0.80480  0.53018  1.0000
  C   C26       1.0  0.03333  0.17977  0.96966  1.0000
  C   C27       1.0  0.53107  0.80433  0.46740  1.0000
  C   C28       1.0  0.16165  0.53207  0.75375  1.0000
  C   C29       1.0  0.29766  0.45205  0.82756  1.0000
  C   C30       1.0  0.82787  0.53204  0.20716  1.0000
  C   C31       1.0  0.13222  0.24430  0.63108  1.0000
  C   C32       1.0  0.06492  0.24425  0.56271  1.0000
  C   C33       1.0  0.03311  0.18171  0.53045  1.0000
  C   C34       1.0  0.46787  0.80675  0.97004  1.0000
  C   C35       1.0  0.16165  0.45203  0.75375  1.0000
  C   C36       1.0  0.29357  0.53204  0.67286  1.0000
  C   C37       1.0  0.74698  0.45203  0.33908  1.0000
  C   C38       1.0  0.36872  0.24099  0.63112  1.0000
  C   C39       1.0  0.43601  0.24156  0.56277  1.0000
  C   C40       1.0  0.53031  0.30480  0.46810  1.0000
  C   C41       1.0  0.46753  0.30433  0.53094  1.0000
  C   C42       1.0  0.03264  0.67930  0.97042  1.0000
  C   C43       1.0  0.67300  0.03204  0.29344  1.0000
  C   C44       1.0  0.13222  0.73980  0.63108  1.0000
  C   C45       1.0  0.06492  0.73986  0.56271  1.0000
  C   C46       1.0  0.03299  0.67736  0.53056  1.0000
  C   C47       1.0  0.46776  0.30240  0.97015  1.0000
  C   C48       1.0  0.75388  0.03207  0.16152  1.0000
  C   C49       1.0  0.20320  0.03205  0.67304  1.0000
  C   C50       1.0  0.63125  0.24312  0.36859  1.0000
  C   C51       1.0  0.13215  0.74099  0.86948  1.0000
  C   C52       1.0  0.56290  0.24255  0.43588  1.0000
  C   C53       1.0  0.06485  0.74156  0.93783  1.0000
  C   C54       1.0  0.53107  0.17977  0.46740  1.0000
  C   C55       1.0  0.03333  0.80433  0.96966  1.0000
  C   C56       1.0  0.46823  0.17930  0.53018  1.0000
  C   C57       1.0  0.67317  0.45205  0.20307  1.0000
  C   C58       1.0  0.74698  0.53207  0.33908  1.0000
  C   C59       1.0  0.29357  0.45207  0.67286  1.0000
  C   C60       1.0  0.36864  0.23980  0.86952  1.0000
  C   C61       1.0  0.43594  0.23986  0.93789  1.0000
  C   C62       1.0  0.46787  0.17736  0.97004  1.0000
  C   C63       1.0  0.03311  0.80240  0.53045  1.0000
  C   C64       1.0  0.67317  0.53205  0.20307  1.0000
  C   C65       1.0  0.82787  0.45207  0.20716  1.0000
  C   C66       1.0  0.29766  0.53205  0.82756  1.0000
  C   C67       1.0  0.20320  0.95205  0.67304  1.0000
  C   C68       1.0  0.33921  0.95203  0.74685  1.0000
  C   C69       1.0  0.67300  0.95207  0.29344  1.0000
  C   C70       1.0  0.75388  0.95203  0.16152  1.0000
  C   C71       1.0  0.20729  0.95207  0.82774  1.0000
  C   C72       1.0  0.82769  0.95205  0.29753  1.0000
  C   C73       1.0  0.96979  0.30433  0.03320  1.0000
  C   C74       1.0  0.86961  0.24099  0.13201  1.0000
  C   C75       1.0  0.93796  0.24156  0.06472  1.0000
  C   C76       1.0  0.97055  0.17930  0.03250  1.0000
  C   C77       1.0  0.86961  0.74312  0.13201  1.0000
  C   C78       1.0  0.93796  0.74255  0.06472  1.0000
  C   C79       1.0  0.96979  0.67977  0.03320  1.0000
  C   C80       1.0  0.97055  0.80480  0.03250  1.0000
  C   C81       1.0  0.86965  0.24430  0.36851  1.0000
  C   C82       1.0  0.93802  0.24425  0.43581  1.0000
  C   C83       1.0  0.97017  0.30675  0.46774  1.0000
  C   C84       1.0  0.97028  0.18171  0.46763  1.0000
  C   C85       1.0  0.97017  0.67736  0.46774  1.0000
  C   C86       1.0  0.86965  0.73980  0.36851  1.0000
  C   C87       1.0  0.93802  0.73986  0.43581  1.0000
  C   C88       1.0  0.97028  0.80240  0.46763  1.0000
  Zn  Zn1       1.0  0.74990  0.66826  0.25003  1.0000
  Zn  Zn2       1.0  0.74990  0.31585  0.25003  1.0000
  Zn  Zn3       1.0  0.75097  0.16825  0.25057  1.0000
  Zn  Zn4       1.0  0.75097  0.81585  0.25057  1.0000
  Zn  Zn5       1.0  0.25070  0.31585  0.75083  1.0000
  Zn  Zn6       1.0  0.25070  0.66826  0.75083  1.0000
  Zn  Zn7       1.0  0.25016  0.81585  0.74977  1.0000
  Zn  Zn8       1.0  0.25016  0.16825  0.74977  1.0000
  N   N1        1.0  0.24982  0.05874  0.74921  1.0000
  N   N2        1.0  0.25104  0.55874  0.75139  1.0000
  N   N3        1.0  0.25104  0.42536  0.75139  1.0000
  N   N4        1.0  0.75152  0.05874  0.25091  1.0000
  N   N5        1.0  0.74934  0.42536  0.24969  1.0000
  N   N6        1.0  0.74934  0.55874  0.24969  1.0000
  N   N7        1.0  0.24982  0.92536  0.74921  1.0000
  N   N8        1.0  0.75152  0.92536  0.25091  1.0000
